# Packages
 &PACKAGES
 useOBCS=.TRUE.,
 useDiagnostics=.TRUE.,
 useMNC=.TRUE.,
 &
